# total energy = -27.00000 eV

CRYSTAL
PRIMVEC
    2.863782     0.000000     0.000000
    0.000000     4.960217     0.000000
    0.000000     0.000000     7.014806
PRIMCOORD
6 1
Al     0.000000     0.000000     0.000000 0.0 0.0 0.0
Al     1.431891     2.480108     0.000000 0.0 0.0 0.0
Al     1.431891     0.826703     2.338269 0.0 0.0 0.0
Al     0.000000     3.306811     2.338269 0.0 0.0 0.0
Al     0.000000     1.653406     4.676537 0.0 0.0 0.0
Al     1.431891     4.133514     4.676537 0.0 0.0 0.0
