# total energy = -33.47352437 eV

CRYSTAL
PRIMVEC
2.89242 0.0 0.0
0.0 5.00982 0.0
0.0 0.0 11.8083
PRIMCOORD
10 1
Al      0.000000      5.009820      0.000000     -0.000000     -0.000001     -0.000000
Al      1.446210      2.504910      0.000000     -0.000000      0.000001     -0.000000
Al      1.446210      0.834972      2.321724      0.000000     -0.000000     -0.000491
Al      0.000000      3.339882      2.321724     -0.000000      0.000000     -0.000493
Al      0.000000      1.669938      4.692807     -0.000000     -0.000001     -0.000915
Al      1.446210      4.174848      4.692807      0.000000      0.000001     -0.000915
Al      1.446210      0.834972      7.115493     -0.000000     -0.000000      0.000915
Al      0.000000      3.339882      7.115493      0.000000      0.000000      0.000915
Al      0.000000      1.669938      9.486576      0.000000     -0.000000      0.000493
Al      1.446210      4.174848      9.486576      0.000000      0.000000      0.000493
