# total energy = -33.4841089172 eV

CRYSTAL
PRIMVEC
2.86378 0.0 0.0
0.0 4.96022 0.0
0.0 0.0 11.6913
PRIMCOORD
10 1
Al      0.000000      4.960220      0.000000      0.000000     -0.000001     -0.000000
Al      0.000000      3.306815      2.304215      0.000000      0.000000     -0.001417
Al      1.431890      0.826705      2.304215     -0.000000     -0.000000     -0.001416
Al      0.000000      1.653405      4.650635      0.000000     -0.000001     -0.001680
Al      1.431890      4.133515      4.650635      0.000000      0.000001     -0.001680
Al      1.431890      0.826705      7.040665     -0.000000     -0.000000      0.001680
Al      0.000000      3.306815      7.040665      0.000000      0.000000      0.001680
Al      0.000000      1.653405      9.387085      0.000000     -0.000000      0.001416
Al      1.431890      4.133515      9.387085      0.000000      0.000000      0.001416
Al      1.431890      2.480110     11.691300     -0.000000      0.000001      0.000000
