CRYSTAL
PRIMVEC
 14.46210000    0.00000000    0.00000000  
  0.00000000   15.02946000    0.00000000  
  0.00000000    0.00000000   23.61660000  
PRIMCOORD
68 1
0.0    7.23105000    7.51473000   11.80830000
0.0   10.12347000    9.18466800   16.50110700
0.0    4.33863000    9.18466800   16.50110700
0.0    7.23105000   14.19448800   16.50110700
0.0    7.23105000    4.17484800   16.50110700
0.0   13.01589000    9.18466800   16.50110700
0.0    1.44621000    9.18466800   16.50110700
0.0   10.12347000   14.19448800   16.50110700
0.0    4.33863000    4.17484800   16.50110700
0.0   10.12347000    4.17484800   16.50110700
0.0    4.33863000   14.19448800   16.50110700
0.0    8.67726000   11.68957800   16.50110700
0.0   11.56968000   11.68957800   16.50110700
0.0    5.78484000   11.68957800   16.50110700
0.0    8.67726000    6.67975800   16.50110700
0.0    2.89242000   11.68957800   16.50110700
0.0    5.78484000    6.67975800   16.50110700
0.0   11.56968000    6.67975800   16.50110700
0.0    2.89242000    6.67975800   16.50110700
0.0    7.23105000   10.85461200   18.92379300
0.0   10.12347000   10.85461200   18.92379300
0.0    4.33863000   10.85461200   18.92379300
0.0    7.23105000    5.84479200   18.92379300
0.0   13.01589000   10.85461200   18.92379300
0.0    1.44621000   10.85461200   18.92379300
0.0    4.33863000    5.84479200   18.92379300
0.0   10.12347000    5.84479200   18.92379300
0.0    8.67726000    8.34970200   18.92379300
0.0   11.56968000    8.34970200   18.92379300
0.0    5.78484000    8.34970200   18.92379300
0.0    8.67726000   13.35952200   18.92379300
0.0    8.67726000    3.33988200   18.92379300
0.0    2.89242000    8.34970200   18.92379300
0.0   11.56968000   13.35952200   18.92379300
0.0    5.78484000    3.33988200   18.92379300
0.0    5.78484000   13.35952200   18.92379300
0.0    2.89242000   13.35952200   18.92379300
0.0    7.23105000   10.85461200   14.13002400
0.0   10.12347000   10.85461200   14.13002400
0.0    4.33863000   10.85461200   14.13002400
0.0    7.23105000    5.84479200   14.13002400
0.0   13.01589000   10.85461200   14.13002400
0.0    1.44621000   10.85461200   14.13002400
0.0    4.33863000    5.84479200   14.13002400
0.0   10.12347000    5.84479200   14.13002400
0.0    8.67726000    8.34970200   14.13002400
0.0   11.56968000    8.34970200   14.13002400
0.0    5.78484000    8.34970200   14.13002400
0.0    8.67726000   13.35952200   14.13002400
0.0    8.67726000    3.33988200   14.13002400
0.0    2.89242000    8.34970200   14.13002400
0.0   11.56968000   13.35952200   14.13002400
0.0    5.78484000    3.33988200   14.13002400
0.0    5.78484000   13.35952200   14.13002400
0.0    2.89242000   13.35952200   14.13002400
0.0    8.67726000   10.01964000   11.80830000
0.0   11.56968000   10.01964000   11.80830000
0.0    5.78484000   10.01964000   11.80830000
0.0    8.67726000    5.00982000   11.80830000
0.0    2.89242000   10.01964000   11.80830000
0.0    5.78484000    5.00982000   11.80830000
0.0    8.67726000   11.68957800   21.29487600
0.0    5.78484000   11.68957800   21.29487600
0.0    8.67726000    6.67975800   21.29487600
0.0    5.78484000    6.67975800   21.29487600
0.0    7.23105000    9.18466800   21.29487600
0.0   10.12347000    9.18466800   21.29487600
0.0    4.33863000    9.18466800   21.29487600
