CRYSTAL
PRIMVEC
 14.46210000    0.00000000    0.00000000  
  0.00000000   15.02946000    0.00000000  
  0.00000000    0.00000000   23.61660000  
PRIMCOORD
64 1
0.0    7.23105000    7.51473000   11.80830000
0.0   10.12347000   12.52455000   11.80830000
0.0    4.33863000   12.52455000   11.80830000
0.0    7.23105000   17.53437000   11.80830000
0.0    7.23105000    7.51473000   11.80830000
0.0   13.01589000   12.52455000   11.80830000
0.0    1.44621000   12.52455000   11.80830000
0.0   10.12347000   17.53437000   11.80830000
0.0    4.33863000    7.51473000   11.80830000
0.0   10.12347000    7.51473000   11.80830000
0.0    4.33863000   17.53437000   11.80830000
0.0    7.23105000    7.51473000   11.80830000
0.0   10.12347000    7.51473000   11.80830000
0.0    4.33863000    7.51473000   11.80830000
0.0    7.23105000   12.52455000   11.80830000
0.0   10.12347000   12.52455000   11.80830000
0.0    4.33863000   12.52455000   11.80830000
0.0   13.01589000   12.52455000   11.80830000
0.0    1.44621000   12.52455000   11.80830000
0.0    7.23105000   17.53437000   11.80830000
0.0    4.33863000   17.53437000   11.80830000
0.0   10.12347000   17.53437000   11.80830000
0.0    8.67726000   11.68957800   16.50110700
0.0   11.56968000   11.68957800   16.50110700
0.0    5.78484000   11.68957800   16.50110700
0.0    8.67726000   16.69939800   16.50110700
0.0    2.89242000   11.68957800   16.50110700
0.0    5.78484000   16.69939800   16.50110700
0.0    7.23105000    9.18466800   16.50110700
0.0   10.12347000    9.18466800   16.50110700
0.0    4.33863000    9.18466800   16.50110700
0.0    7.23105000   14.19448800   16.50110700
0.0   10.12347000   14.19448800   16.50110700
0.0    4.33863000   14.19448800   16.50110700
0.0    8.67726000   11.68957800    9.48657600
0.0   11.56968000   11.68957800    9.48657600
0.0    5.78484000   11.68957800    9.48657600
0.0    8.67726000    6.67975800    9.48657600
0.0    8.67726000   16.69939800    9.48657600
0.0    2.89242000   11.68957800    9.48657600
0.0    5.78484000   16.69939800    9.48657600
0.0    5.78484000    6.67975800    9.48657600
0.0   11.56968000   16.69939800    9.48657600
0.0    2.89242000   16.69939800    9.48657600
0.0    7.23105000    9.18466800    9.48657600
0.0   10.12347000    9.18466800    9.48657600
0.0    4.33863000    9.18466800    9.48657600
0.0    7.23105000   14.19448800    9.48657600
0.0    4.33863000   14.19448800    9.48657600
0.0   10.12347000   14.19448800    9.48657600
0.0    1.44621000   14.19448800    9.48657600
0.0   13.01589000   14.19448800    9.48657600
0.0    7.23105000   10.85461200    7.11549300
0.0   10.12347000   10.85461200    7.11549300
0.0    4.33863000   10.85461200    7.11549300
0.0    7.23105000   15.86443200    7.11549300
0.0    4.33863000   15.86443200    7.11549300
0.0   10.12347000   15.86443200    7.11549300
0.0    8.67726000    8.34970200    7.11549300
0.0    5.78484000    8.34970200    7.11549300
0.0    8.67726000   13.35952200    7.11549300
0.0    5.78484000   13.35952200    7.11549300
0.0   11.56968000   13.35952200    7.11549300
0.0    2.89242000   13.35952200    7.11549300
