CRYSTAL
PRIMVEC
 14.46210000    0.00000000    0.00000000  
  0.00000000   15.02946000    0.00000000  
  0.00000000    0.00000000   23.61660000  
PRIMCOORD
74 1
0.0    7.23105000    7.51473000   11.80830000
0.0   11.52672000   11.64824500   21.19538500
0.0    5.79916000   11.64824500   21.19538500
0.0    8.66294000   16.60846500   21.19538500
0.0    8.66294000    6.68802500   21.19538500
0.0   14.39050000   11.64824500   21.19538500
0.0    2.93538000   11.64824500   21.19538500
0.0   11.52672000   16.60846500   21.19538500
0.0    5.79916000    6.68802500   21.19538500
0.0   11.52672000    6.68802500   21.19538500
0.0    5.79916000   16.60846500   21.19538500
0.0    7.23105000    9.16813500   21.19538500
0.0   10.09483000    9.16813500   21.19538500
0.0    4.36727000    9.16813500   21.19538500
0.0    7.23105000   14.12835500   21.19538500
0.0   12.95861000    9.16813500   21.19538500
0.0   10.09483000   14.12835500   21.19538500
0.0    4.36727000   14.12835500   21.19538500
0.0   12.95861000   14.12835500   21.19538500
0.0    8.66294000    9.99484000   23.49960000
0.0    5.79916000    9.99484000   23.49960000
0.0   11.52672000    9.99484000   23.49960000
0.0    8.66294000   14.95506000   23.49960000
0.0    2.93538000    9.99484000   23.49960000
0.0   14.39050000    9.99484000   23.49960000
0.0   11.52672000   14.95506000   23.49960000
0.0    5.79916000   14.95506000   23.49960000
0.0    8.66294000    8.34143500   25.80381500
0.0    5.79916000    8.34143500   25.80381500
0.0   11.52672000    8.34143500   25.80381500
0.0    8.66294000   13.30165500   25.80381500
0.0   11.52672000   13.30165500   25.80381500
0.0    5.79916000   13.30165500   25.80381500
0.0    7.23105000   10.82154500   25.80381500
0.0    4.36727000   10.82154500   25.80381500
0.0   10.09483000   10.82154500   25.80381500
0.0    7.23105000   15.78176500   25.80381500
0.0   12.95861000   10.82154500   25.80381500
0.0   10.09483000   15.78176500   25.80381500
0.0    7.23105000    7.51473000   23.49960000
0.0    4.36727000    7.51473000   23.49960000
0.0   10.09483000    7.51473000   23.49960000
0.0    7.23105000   12.47495000   23.49960000
0.0   12.95861000    7.51473000   23.49960000
0.0   10.09483000   12.47495000   23.49960000
0.0    4.36727000   12.47495000   23.49960000
0.0   12.95861000   12.47495000   23.49960000
0.0    7.23105000   17.43517000   23.49960000
0.0   10.09483000   17.43517000   23.49960000
0.0    7.23105000   10.82154500   18.84896500
0.0   10.09483000   10.82154500   18.84896500
0.0    4.36727000   10.82154500   18.84896500
0.0    7.23105000   15.78176500   18.84896500
0.0    7.23105000    5.86132500   18.84896500
0.0   12.95861000   10.82154500   18.84896500
0.0   10.09483000   15.78176500   18.84896500
0.0   10.09483000    5.86132500   18.84896500
0.0    4.36727000   15.78176500   18.84896500
0.0   12.95861000   15.78176500   18.84896500
0.0    8.66294000    8.34143500   18.84896500
0.0   11.52672000    8.34143500   18.84896500
0.0    5.79916000    8.34143500   18.84896500
0.0    8.66294000   13.30165500   18.84896500
0.0   11.52672000   13.30165500   18.84896500
0.0    5.79916000   13.30165500   18.84896500
0.0   14.39050000   13.30165500   18.84896500
0.0    2.93538000   13.30165500   18.84896500
0.0    8.66294000   11.64824500   16.45893500
0.0   11.52672000   11.64824500   16.45893500
0.0    5.79916000   11.64824500   16.45893500
0.0    7.23105000    9.16813500   16.45893500
0.0   10.09483000    9.16813500   16.45893500
0.0    7.23105000   14.12835500   16.45893500
0.0   10.09483000   14.12835500   16.45893500
