CRYSTAL
PRIMVEC
 14.46210000    0.00000000    0.00000000  
  0.00000000   15.02946000    0.00000000  
  0.00000000    0.00000000   23.61660000  
PRIMCOORD
73 1
Al    7.23105000    7.51473000    7.01453100
Al    5.78484000   10.01964000    7.01453100
Al    5.78484000    8.34969600    9.38561400
Al    7.23105000   10.85460600    9.38561400
Al    5.78484000   10.01964000   11.80830000
Al    5.78484000    8.34969600   14.17938300
Al    7.23105000   10.85460600   14.17938300
Al   10.12347000    7.51473000    7.01453100
Al    8.67726000   10.01964000    7.01453100
Al    8.67726000    8.34969600    9.38561400
Al   10.12347000   10.85460600    9.38561400
Al   10.12347000    7.51473000   11.80830000
Al    8.67726000   10.01964000   11.80830000
Al    8.67726000    8.34969600   14.17938300
Al   10.12347000   10.85460600   14.17938300
Al   11.56968000    8.34969600    9.38561400
Al   13.01589000    7.51473000   11.80830000
Al   11.56968000   10.01964000   11.80830000
Al   11.56968000    8.34969600   14.17938300
Al   15.90831000    7.51473000   11.80830000
Al   18.80073000    7.51473000    7.01453100
Al   17.35452000    8.34969600    9.38561400
Al   18.80073000   10.85460600    9.38561400
Al   18.80073000    7.51473000   11.80830000
Al   17.35452000   10.01964000   11.80830000
Al   17.35452000    8.34969600   14.17938300
Al   18.80073000   10.85460600   14.17938300
Al    5.78484000   13.35951600    9.38561400
Al    7.23105000   12.52455000   11.80830000
Al    5.78484000   13.35951600   14.17938300
Al    8.67726000   13.35951600    9.38561400
Al   10.12347000   12.52455000   11.80830000
Al    8.67726000   13.35951600   14.17938300
Al   18.80073000   12.52455000   11.80830000
Al    5.78484000   20.03928000    7.01453100
Al    5.78484000   18.36933600    9.38561400
Al    7.23105000   20.87424600    9.38561400
Al    7.23105000   17.53437000   11.80830000
Al    5.78484000   20.03928000   11.80830000
Al    5.78484000   18.36933600   14.17938300
Al    7.23105000   20.87424600   14.17938300
Al    8.67726000   20.03928000    7.01453100
Al    8.67726000   18.36933600    9.38561400
Al   10.12347000   20.87424600    9.38561400
Al   10.12347000   17.53437000   11.80830000
Al    8.67726000   20.03928000   11.80830000
Al    8.67726000   18.36933600   14.17938300
Al   10.12347000   20.87424600   14.17938300
Al   11.56968000   18.36933600    9.38561400
Al   13.01589000   20.87424600    9.38561400
Al   11.56968000   20.03928000   11.80830000
Al   11.56968000   18.36933600   14.17938300
Al   13.01589000   20.87424600   14.17938300
Al   15.90831000   20.87424600    9.38561400
Al   15.90831000   20.87424600   14.17938300
Al   17.35452000   18.36933600    9.38561400
Al   18.80073000   20.87424600    9.38561400
Al   18.80073000   17.53437000   11.80830000
Al   17.35452000   20.03928000   11.80830000
Al   17.35452000   18.36933600   14.17938300
Al   18.80073000   20.87424600   14.17938300
Al    5.78484000   11.68957800   16.50110700
Al    7.23105000    9.18466800   16.50110700
Al    8.67726000   11.68957800   16.50110700
Al   10.12347000    9.18466800   16.50110700
Al   18.80073000    9.18466800   16.50110700
Al    5.78484000   21.70921800   16.50110700
Al    7.23105000   19.20430800   16.50110700
Al    8.67726000   21.70921800   16.50110700
Al   10.12347000   19.20430800   16.50110700
Al   11.56968000   21.70921800   16.50110700
Al   17.35452000   21.70921800   16.50110700
Al   18.80073000   19.20430800   16.50110700
