CRYSTAL
PRIMVEC
 14.46210000    0.00000000    0.00000000  
  0.00000000   15.02946000    0.00000000  
  0.00000000    0.00000000   23.61660000  
PRIMCOORD
78 1
Al    8.67726000    5.00982000   11.80830000
Al    8.67726000    3.33988200   14.13002400
Al    7.23105000    5.84479200   14.13002400
Al    7.23105000    4.17484800   16.50110700
Al    8.67726000    6.67975800   16.50110700
Al   10.12347000    7.51473000   11.80830000
Al   11.56968000    5.00982000   11.80830000
Al   11.56968000    3.33988200   14.13002400
Al   10.12347000    5.84479200   14.13002400
Al   10.12347000    4.17484800   16.50110700
Al   11.56968000    6.67975800   16.50110700
Al   13.01589000    7.51473000   11.80830000
Al   13.01589000    5.84479200   14.13002400
Al   15.90831000    7.51473000   11.80830000
Al   17.35452000    5.00982000   11.80830000
Al   17.35452000    3.33988200   14.13002400
Al   15.90831000    5.84479200   14.13002400
Al   17.35452000    6.67975800   16.50110700
Al   18.80073000    7.51473000   11.80830000
Al   20.24694000    5.00982000   11.80830000
Al   20.24694000    3.33988200   14.13002400
Al   18.80073000    5.84479200   14.13002400
Al   18.80073000    4.17484800   16.50110700
Al   20.24694000    6.67975800   16.50110700
Al    7.23105000   12.52455000   11.80830000
Al    8.67726000   10.01964000   11.80830000
Al    8.67726000    8.34970200   14.13002400
Al    7.23105000   10.85461200   14.13002400
Al    7.23105000    9.18466800   16.50110700
Al    8.67726000   11.68957800   16.50110700
Al   10.12347000   12.52455000   11.80830000
Al   11.56968000   10.01964000   11.80830000
Al   11.56968000    8.34970200   14.13002400
Al   10.12347000   10.85461200   14.13002400
Al   10.12347000    9.18466800   16.50110700
Al   17.35452000   10.01964000   11.80830000
Al   17.35452000    8.34970200   14.13002400
Al   18.80073000   12.52455000   11.80830000
Al   20.24694000   10.01964000   11.80830000
Al   20.24694000    8.34970200   14.13002400
Al   18.80073000   10.85461200   14.13002400
Al   18.80073000    9.18466800   16.50110700
Al   20.24694000   11.68957800   16.50110700
Al    7.23105000   17.53437000   11.80830000
Al    8.67726000   13.35952200   14.13002400
Al   10.12347000   17.53437000   11.80830000
Al   18.80073000   17.53437000   11.80830000
Al   20.24694000   13.35952200   14.13002400
Al    8.67726000    3.33988200   30.73209300
Al    7.23105000    5.84479200   30.73209300
Al    7.23105000    4.17484800   33.10317600
Al    8.67726000    6.67975800   33.10317600
Al   10.12347000    5.84479200   30.73209300
Al   10.12347000    4.17484800   33.10317600
Al   11.56968000    6.67975800   33.10317600
Al   17.35452000    6.67975800   33.10317600
Al   20.24694000    3.33988200   30.73209300
Al   18.80073000    5.84479200   30.73209300
Al   18.80073000    4.17484800   33.10317600
Al   20.24694000    6.67975800   33.10317600
Al    8.67726000    8.34970200   30.73209300
Al    7.23105000   10.85461200   30.73209300
Al    7.23105000    9.18466800   33.10317600
Al    8.67726000   11.68957800   33.10317600
Al   11.56968000    8.34970200   30.73209300
Al   10.12347000   10.85461200   30.73209300
Al   10.12347000    9.18466800   33.10317600
Al   11.56968000   11.68957800   33.10317600
Al   13.01589000    9.18466800   33.10317600
Al   17.35452000    8.34970200   30.73209300
Al   15.90831000    9.18466800   33.10317600
Al   17.35452000   11.68957800   33.10317600
Al   20.24694000    8.34970200   30.73209300
Al   18.80073000   10.85461200   30.73209300
Al   18.80073000    9.18466800   33.10317600
Al   20.24694000   11.68957800   33.10317600
Al    8.67726000   16.69939800   33.10317600
Al   20.24694000   16.69939800   33.10317600
