CRYSTAL
PRIMVEC
 14.46210000    0.00000000    0.00000000  
  0.00000000   15.02946000    0.00000000  
  0.00000000    0.00000000   23.61660000  
PRIMCOORD
73 1
Al    5.78484000    5.00982000    7.01453100
Al    7.23105000    7.51473000    7.01453100
Al    7.23105000    4.17485400    9.43721700
Al    5.78484000    6.67976400    9.43721700
Al    5.78484000    5.00982000   11.80830000
Al    8.67726000    5.00982000    7.01453100
Al   10.12347000    7.51473000    7.01453100
Al   10.12347000    4.17485400    9.43721700
Al    8.67726000    6.67976400    9.43721700
Al    8.67726000    5.00982000   11.80830000
Al   10.12347000    7.51473000   11.80830000
Al   11.56968000    6.67976400    9.43721700
Al   11.56968000    5.00982000   11.80830000
Al   13.01589000    7.51473000   11.80830000
Al   15.90831000    7.51473000   11.80830000
Al   18.80073000    7.51473000    7.01453100
Al   18.80073000    4.17485400    9.43721700
Al   17.35452000    6.67976400    9.43721700
Al   17.35452000    5.00982000   11.80830000
Al   18.80073000    7.51473000   11.80830000
Al    5.78484000   10.01964000    7.01453100
Al    7.23105000    9.18467400    9.43721700
Al    5.78484000   11.68958400    9.43721700
Al    5.78484000   10.01964000   11.80830000
Al    7.23105000   12.52455000   11.80830000
Al    8.67726000   10.01964000    7.01453100
Al   10.12347000    9.18467400    9.43721700
Al    8.67726000   11.68958400    9.43721700
Al    8.67726000   10.01964000   11.80830000
Al   10.12347000   12.52455000   11.80830000
Al   13.01589000    9.18467400    9.43721700
Al   11.56968000   11.68958400    9.43721700
Al   11.56968000   10.01964000   11.80830000
Al   15.90831000    9.18467400    9.43721700
Al   18.80073000    9.18467400    9.43721700
Al   17.35452000   11.68958400    9.43721700
Al   17.35452000   10.01964000   11.80830000
Al   18.80073000   12.52455000   11.80830000
Al    5.78484000   16.69940400    9.43721700
Al    7.23105000   17.53437000   11.80830000
Al    8.67726000   16.69940400    9.43721700
Al   10.12347000   17.53437000   11.80830000
Al   18.80073000   17.53437000   11.80830000
Al    5.78484000    8.34970200   14.13002400
Al    7.23105000    5.84479200   14.13002400
Al    7.23105000    4.17485400   16.45174800
Al    5.78484000    6.67976400   16.45174800
Al    8.67726000    8.34970200   14.13002400
Al   10.12347000    5.84479200   14.13002400
Al   10.12347000    4.17485400   16.45174800
Al    8.67726000    6.67976400   16.45174800
Al   11.56968000    8.34970200   14.13002400
Al   13.01589000    5.84479200   14.13002400
Al   11.56968000    6.67976400   16.45174800
Al   15.90831000    5.84479200   14.13002400
Al   17.35452000    8.34970200   14.13002400
Al   18.80073000    5.84479200   14.13002400
Al   18.80073000    4.17485400   16.45174800
Al   17.35452000    6.67976400   16.45174800
Al    5.78484000   13.35952200   14.13002400
Al    7.23105000   10.85461200   14.13002400
Al    7.23105000    9.18467400   16.45174800
Al    5.78484000   11.68958400   16.45174800
Al    8.67726000   13.35952200   14.13002400
Al   10.12347000   10.85461200   14.13002400
Al   10.12347000    9.18467400   16.45174800
Al    8.67726000   11.68958400   16.45174800
Al   18.80073000   10.85461200   14.13002400
Al   18.80073000    9.18467400   16.45174800
Al    5.78484000   18.36934200   14.13002400
Al    8.67726000   18.36934200   14.13002400
Al   11.56968000   18.36934200   14.13002400
Al   17.35452000   18.36934200   14.13002400
